*Heading
** Job name: Job-1 Model name: Model-1
** Generated by: Abaqus/CAE 2022
*Preprint, echo=NO, model=NO, history=NO, contact=NO
**
** PARTS
**
*Part, name=Part-1
*Node
      1,           0.,           0.
      2,      0.03125,           0.
      3,       0.0625,           0.
      4,      0.09375,           0.
      5,        0.125,           0.
      6,      0.15625,           0.
      7,       0.1875,           0.
      8,      0.21875,           0.
      9,         0.25,           0.
     10,      0.28125,           0.
     11,       0.3125,           0.
     12,      0.34375,           0.
     13,        0.375,           0.
     14,      0.40625,           0.
     15,       0.4375,           0.
     16,      0.46875,           0.
     17,          0.5,           0.
     18,      0.53125,           0.
     19,       0.5625,           0.
     20,      0.59375,           0.
** ... 1069 like lines cut
*Element, type=CPE4R
   1,    1,    2,   35,   34
   2,    2,    3,   36,   35
   3,    3,    4,   37,   36
   4,    4,    5,   38,   37
   5,    5,    6,   39,   38
   6,    6,    7,   40,   39
   7,    7,    8,   41,   40
   8,    8,    9,   42,   41
   9,    9,   10,   43,   42
  10,   10,   11,   44,   43
  11,   11,   12,   45,   44
  12,   12,   13,   46,   45
  13,   13,   14,   47,   46
  14,   14,   15,   48,   47
  15,   15,   16,   49,   48
  16,   16,   17,   50,   49
  17,   17,   18,   51,   50
  18,   18,   19,   52,   51
  19,   19,   20,   53,   52
  20,   20,   21,   54,   53
** ... 1004 like lines cut
*Nset, nset=_PickedSet2, internal, generate
    1,  1089,     1
*Elset, elset=_PickedSet2, internal, generate
    1,  1024,     1
*Elset, elset=Set-Grain-29
 161, 162, 163, 164, 165, 166, 193, 194, 195, 196, 197, 198, 199, 225, 226, 227
 228, 229, 230, 257, 258, 259, 260, 261, 262, 289, 290, 291, 292, 293, 294
*Elset, elset=Set-Grain-28
  12,  13,  14,  15,  16,  17,  44,  45,  46,  47,  48,  49,  76,  77,  78,  79
  80,  81, 108, 109, 110, 111, 112, 113, 141, 142, 143, 144
*Elset, elset=Set-Grain-25
  29,  30,  31,  32,  61,  62,  63,  64,  92,  93,  94,  95,  96, 124, 125, 126
 127, 128, 156, 157, 158, 159, 160, 188, 189, 190, 191, 192, 221, 222, 223, 224
 253, 254, 255, 256
*Elset, elset=Set-Grain-24
 865, 866, 867, 868, 869, 870, 897, 898, 899, 900, 901, 902, 929, 930, 931, 932
 933, 934, 961, 962, 963, 964, 965, 966, 993, 994, 995, 996, 997, 998
*Elset, elset=Set-Grain-27
   7,   8,   9,  10,  11,  39,  40,  41,  42,  43,  71,  72,  73,  74,  75, 103
 104, 105, 106, 107, 134, 135, 136, 137, 138, 139, 140, 167, 168, 169, 170, 171
 172, 200, 201
*Elset, elset=Set-Grain-26
  22,  23,  24,  25,  26,  27,  28,  55,  56,  57,  58,  59,  60,  87,  88,  89
  90,  91, 119, 120, 121, 122, 123, 151, 152, 153, 154, 155, 184, 185
*Elset, elset=Set-Grain-21
 677, 705, 706, 707, 708, 709, 737, 738, 739, 740, 741, 742, 769, 770, 771, 772
 773, 774, 801, 802, 803, 804, 805, 806, 807, 833, 834, 835, 836, 837, 838
*Elset, elset=Set-Grain-20
 202, 203, 231, 232, 233, 234, 235, 263, 264, 265, 266, 267, 268, 295, 296, 297
 298, 299, 300, 326, 327, 328, 329, 330, 331, 332, 359, 360, 361, 362, 363, 364
 392, 393, 394, 395
*Elset, elset=Set-Grain-23
 321, 322, 323, 324, 325, 353, 354, 355, 356, 357, 358, 385, 386, 387, 388, 389
 390, 391, 417, 418, 419, 420, 421, 422, 449, 450, 451, 452, 453, 454, 481, 482
 483, 484, 485
*Elset, elset=Set-Grain-22
 513, 514, 515, 516, 517, 545, 546, 547, 548, 549, 550, 577, 578, 579, 580, 581
 582, 609, 610, 611, 612, 613, 614, 641, 642, 643, 644, 645, 673, 674, 675, 676
*Elset, elset=Set-Grain-2
 498, 499, 500, 501, 502, 530, 531, 532, 533, 534, 561, 562, 563, 564, 565, 566
 567, 594, 595, 596, 597, 598, 599, 626, 627, 628, 629, 630, 631, 658, 659, 660
 661, 662
*Elset, elset=Set-Grain-3
 556, 557, 558, 559, 560, 588, 589, 590, 591, 592, 593, 619, 620, 621, 622, 623
 624, 625, 652, 653, 654, 655, 656, 657, 684, 685, 686, 687, 688, 689, 719, 720
*Elset, elset=Set-Grain-1
 690, 691, 692, 693, 721, 722, 723, 724, 725, 752, 753, 754, 755, 756, 757, 758
 785, 786, 787, 788, 789, 790, 817, 818, 819, 820, 821, 822, 850, 851, 852, 853
 884,
*Elset, elset=Set-Grain-6
  854,  855,  856,  857,  885,  886,  887,  888,  889,  890,  916,  917,  918,  919,  920,  921
  922,  948,  949,  950,  951,  952,  953,  954,  980,  981,  982,  983,  984,  985,  986, 1012
 1013, 1014, 1015, 1016, 1017, 1018
*Elset, elset=Set-Grain-7
 632, 633, 634, 663, 664, 665, 666, 694, 695, 696, 697, 698, 699, 726, 727, 728
 729, 730, 731, 732, 759, 760, 761, 762, 763, 764, 791, 792, 793, 794, 795, 796
 823, 824, 825, 826, 827, 858
*Elset, elset=Set-Grain-4
 716, 717, 718, 747, 748, 749, 750, 751, 779, 780, 781, 782, 783, 784, 810, 811
 812, 813, 814, 815, 816, 843, 844, 845, 846, 847, 876, 877, 878, 909
*Elset, elset=Set-Grain-5
  848,  849,  879,  880,  881,  882,  883,  910,  911,  912,  913,  914,  915,  941,  942,  943
  944,  945,  946,  947,  973,  974,  975,  976,  977,  978,  979, 1005, 1006, 1007, 1008, 1009
 1010, 1011
*Elset, elset=Set-Grain-8
 408, 409, 410, 439, 440, 441, 442, 443, 471, 472, 473, 474, 475, 476, 503, 504
 505, 506, 507, 508, 509, 535, 536, 537, 538, 539, 540, 541, 568, 569, 570, 571
 572, 600, 601, 602, 603
*Elset, elset=Set-Grain-9
 245, 275, 276, 277, 278, 306, 307, 308, 309, 310, 338, 339, 340, 341, 342, 343
 370, 371, 372, 373, 374, 375, 402, 403, 404, 405, 406, 407, 435, 436, 437, 438
 467, 468, 469, 470
*Elset, elset=Set-Grain-30
   1,   2,   3,   4,   5,   6,  33,  34,  35,  36,  37,  38,  65,  66,  67,  68
  69,  70,  97,  98,  99, 100, 101, 102, 129, 130, 131, 132, 133
*Elset, elset=Set-Grain-14
  797,  798,  799,  800,  828,  829,  830,  831,  832,  859,  860,  861,  862,  863,  864,  891
  892,  893,  894,  895,  896,  923,  924,  925,  926,  927,  928,  955,  956,  957,  958,  959
  960,  987,  988,  989,  990,  991,  992, 1019, 1020, 1021, 1022, 1023, 1024
*Elset, elset=Set-Grain-15
 542, 543, 544, 573, 574, 575, 576, 604, 605, 606, 607, 608, 635, 636, 637, 638
 639, 640, 667, 668, 669, 670, 671, 672, 700, 701, 702, 703, 704, 733, 734, 735
 736, 765, 766, 767, 768
*Elset, elset=Set-Grain-16
 286, 287, 288, 317, 318, 319, 320, 348, 349, 350, 351, 352, 379, 380, 381, 382
 383, 384, 411, 412, 413, 414, 415, 416, 444, 445, 446, 447, 448, 477, 478, 479
 480, 510, 511, 512
*Elset, elset=Set-Grain-17
 186, 187, 215, 216, 217, 218, 219, 220, 246, 247, 248, 249, 250, 251, 252, 279
 280, 281, 282, 283, 284, 285, 311, 312, 313, 314, 315, 316, 344, 345, 346, 347
 376, 377, 378
*Elset, elset=Set-Grain-10
 365, 366, 367, 368, 369, 396, 397, 398, 399, 400, 401, 428, 429, 430, 431, 432
 433, 434, 460, 461, 462, 463, 464, 465, 466, 493, 494, 495, 496, 497, 525, 526
 527, 528, 529
*Elset, elset=Set-Grain-11
 615, 616, 617, 618, 646, 647, 648, 649, 650, 651, 678, 679, 680, 681, 682, 683
 710, 711, 712, 713, 714, 715, 743, 744, 745, 746, 775, 776, 777, 778, 808, 809
*Elset, elset=Set-Grain-12
 423, 424, 425, 426, 427, 455, 456, 457, 458, 459, 486, 487, 488, 489, 490, 491
 492, 518, 519, 520, 521, 522, 523, 524, 551, 552, 553, 554, 555, 583, 584, 585
 586, 587
*Elset, elset=Set-Grain-13
  839,  840,  841,  842,  871,  872,  873,  874,  875,  903,  904,  905,  906,  907,  908,  935
  936,  937,  938,  939,  940,  967,  968,  969,  970,  971,  972,  999, 1000, 1001, 1002, 1003
 1004,
*Elset, elset=Set-Grain-18
 173, 174, 175, 176, 177, 204, 205, 206, 207, 208, 209, 210, 236, 237, 238, 239
 240, 241, 242, 269, 270, 271, 272, 273, 274, 301, 302, 303, 304, 305, 333, 334
 335, 336, 337
*Elset, elset=Set-Grain-19
  18,  19,  20,  21,  50,  51,  52,  53,  54,  82,  83,  84,  85,  86, 114, 115
 116, 117, 118, 145, 146, 147, 148, 149, 150, 178, 179, 180, 181, 182, 183, 211
 212, 213, 214, 243, 244
** Section: Section-1
*Solid Section, elset=Set-Grain-1,material=MAT1
1.0
*Solid Section, elset=Set-Grain-2,material=MAT2
1.0
*Solid Section, elset=Set-Grain-3,material=MAT3
1.0
*Solid Section, elset=Set-Grain-4,material=MAT4
1.0
*Solid Section, elset=Set-Grain-5,material=MAT5
1.0
*Solid Section, elset=Set-Grain-6,material=MAT6
1.0
*Solid Section, elset=Set-Grain-7,material=MAT7
1.0
*Solid Section, elset=Set-Grain-8,material=MAT8
1.0
*Solid Section, elset=Set-Grain-9,material=MAT9
1.0
*Solid Section, elset=Set-Grain-10,material=MAT10
1.0
*Solid Section, elset=Set-Grain-11,material=MAT11
1.0
*Solid Section, elset=Set-Grain-12,material=MAT12
1.0
*Solid Section, elset=Set-Grain-13,material=MAT13
1.0
*Solid Section, elset=Set-Grain-14,material=MAT14
1.0
*Solid Section, elset=Set-Grain-15,material=MAT15
1.0
*Solid Section, elset=Set-Grain-16,material=MAT16
1.0
*Solid Section, elset=Set-Grain-17,material=MAT17
1.0
*Solid Section, elset=Set-Grain-18,material=MAT18
1.0
*Solid Section, elset=Set-Grain-19,material=MAT19
1.0
*Solid Section, elset=Set-Grain-20,material=MAT20
1.0
** ... 20 like lines cut
*End Part
**  
**
** ASSEMBLY
**
*Assembly, name=Assembly
**  
*Instance, name=Part-1-1, part=Part-1
*End Instance
**  
*Node
      1,   1.20000005,          0.5,           0.
*Node
      2,          0.5,   1.20000005,           0.
*Nset, nset=Set-RPx
 1,
*Nset, nset=Set-RPy
 2,
*Nset, nset=Set-bot-1, instance=Part-1-1
 2,
*Nset, nset=Set-bot-2, instance=Part-1-1
 3,
*Nset, nset=Set-bot-3, instance=Part-1-1
 4,
*Nset, nset=Set-bot-4, instance=Part-1-1
 5,
*Nset, nset=Set-bot-5, instance=Part-1-1
 6,
*Nset, nset=Set-bot-6, instance=Part-1-1
 7,
*Nset, nset=Set-bot-7, instance=Part-1-1
 8,
*Nset, nset=Set-bot-8, instance=Part-1-1
 9,
*Nset, nset=Set-bot-9, instance=Part-1-1
 10,
*Nset, nset=Set-bot-10, instance=Part-1-1
 11,
*Nset, nset=Set-bot-11, instance=Part-1-1
 12,
*Nset, nset=Set-bot-12, instance=Part-1-1
 13,
*Nset, nset=Set-bot-13, instance=Part-1-1
 14,
*Nset, nset=Set-bot-14, instance=Part-1-1
 15,
*Nset, nset=Set-bot-15, instance=Part-1-1
 16,
*Nset, nset=Set-bot-16, instance=Part-1-1
 17,
*Nset, nset=Set-bot-17, instance=Part-1-1
 18,
*Nset, nset=Set-bot-18, instance=Part-1-1
 19,
*Nset, nset=Set-bot-19, instance=Part-1-1
 20,
*Nset, nset=Set-bot-20, instance=Part-1-1
** ... 23 like lines cut
*Nset, nset=Set-lef-1, instance=Part-1-1
 34,
*Nset, nset=Set-lef-2, instance=Part-1-1
 67,
*Nset, nset=Set-lef-3, instance=Part-1-1
 100,
*Nset, nset=Set-lef-4, instance=Part-1-1
 133,
*Nset, nset=Set-lef-5, instance=Part-1-1
 166,
*Nset, nset=Set-lef-6, instance=Part-1-1
 199,
*Nset, nset=Set-lef-7, instance=Part-1-1
 232,
*Nset, nset=Set-lef-8, instance=Part-1-1
 265,
*Nset, nset=Set-lef-9, instance=Part-1-1
 298,
*Nset, nset=Set-lef-10, instance=Part-1-1
 331,
*Nset, nset=Set-lef-11, instance=Part-1-1
 364,
*Nset, nset=Set-lef-12, instance=Part-1-1
 397,
*Nset, nset=Set-lef-13, instance=Part-1-1
 430,
*Nset, nset=Set-lef-14, instance=Part-1-1
 463,
*Nset, nset=Set-lef-15, instance=Part-1-1
 496,
*Nset, nset=Set-lef-16, instance=Part-1-1
 529,
*Nset, nset=Set-lef-17, instance=Part-1-1
 562,
*Nset, nset=Set-lef-18, instance=Part-1-1
 595,
*Nset, nset=Set-lef-19, instance=Part-1-1
 628,
*Nset, nset=Set-lef-20, instance=Part-1-1
 661,
** ... 22 like lines cut
*Nset, nset=Set-rig-1, instance=Part-1-1
 66,
*Nset, nset=Set-rig-2, instance=Part-1-1
 99,
*Nset, nset=Set-rig-3, instance=Part-1-1
 132,
*Nset, nset=Set-rig-4, instance=Part-1-1
 165,
*Nset, nset=Set-rig-5, instance=Part-1-1
 198,
*Nset, nset=Set-rig-6, instance=Part-1-1
 231,
*Nset, nset=Set-rig-7, instance=Part-1-1
 264,
*Nset, nset=Set-rig-8, instance=Part-1-1
 297,
*Nset, nset=Set-rig-9, instance=Part-1-1
 330,
*Nset, nset=Set-rig-10, instance=Part-1-1
 363,
*Nset, nset=Set-rig-11, instance=Part-1-1
 396,
*Nset, nset=Set-rig-12, instance=Part-1-1
 429,
*Nset, nset=Set-rig-13, instance=Part-1-1
 462,
*Nset, nset=Set-rig-14, instance=Part-1-1
 495,
*Nset, nset=Set-rig-15, instance=Part-1-1
 528,
*Nset, nset=Set-rig-16, instance=Part-1-1
 561,
*Nset, nset=Set-rig-17, instance=Part-1-1
 594,
*Nset, nset=Set-rig-18, instance=Part-1-1
 627,
*Nset, nset=Set-rig-19, instance=Part-1-1
 660,
*Nset, nset=Set-rig-20, instance=Part-1-1
 693,
** ... 22 like lines cut
*Nset, nset=Set-top-1, instance=Part-1-1
 1058,
*Nset, nset=Set-top-2, instance=Part-1-1
 1059,
*Nset, nset=Set-top-3, instance=Part-1-1
 1060,
*Nset, nset=Set-top-4, instance=Part-1-1
 1061,
*Nset, nset=Set-top-5, instance=Part-1-1
 1062,
*Nset, nset=Set-top-6, instance=Part-1-1
 1063,
*Nset, nset=Set-top-7, instance=Part-1-1
 1064,
*Nset, nset=Set-top-8, instance=Part-1-1
 1065,
*Nset, nset=Set-top-9, instance=Part-1-1
 1066,
*Nset, nset=Set-top-10, instance=Part-1-1
 1067,
*Nset, nset=Set-top-11, instance=Part-1-1
 1068,
*Nset, nset=Set-top-12, instance=Part-1-1
 1069,
*Nset, nset=Set-top-13, instance=Part-1-1
 1070,
*Nset, nset=Set-top-14, instance=Part-1-1
 1071,
*Nset, nset=Set-top-15, instance=Part-1-1
 1072,
*Nset, nset=Set-top-16, instance=Part-1-1
 1073,
*Nset, nset=Set-top-17, instance=Part-1-1
 1074,
*Nset, nset=Set-top-18, instance=Part-1-1
 1075,
*Nset, nset=Set-top-19, instance=Part-1-1
 1076,
*Nset, nset=Set-top-20, instance=Part-1-1
 1077,
** ... 22 like lines cut
*Nset, nset=Set-v1, instance=Part-1-1
 1057,
*Nset, nset=Set-v2, instance=Part-1-1
 1089,
*Nset, nset=Set-v3, instance=Part-1-1
 33,
*Nset, nset=Set-v4, instance=Part-1-1
 1,
*Nset, nset=_PickedSet140, internal
 1,
** Constraint: Constraint-mx1
*Equation
3
Set-rig-1, 1, 1.
Set-lef-1, 1, -1.
Set-RPx, 1, -1.
** Constraint: Constraint-mx2
*Equation
3
Set-rig-2, 1, 1.
Set-lef-2, 1, -1.
Set-RPx, 1, -1.
** Constraint: Constraint-mx3
*Equation
3
Set-rig-3, 1, 1.
Set-lef-3, 1, -1.
Set-RPx, 1, -1.
** Constraint: Constraint-mx4
*Equation
3
Set-rig-4, 1, 1.
Set-lef-4, 1, -1.
Set-RPx, 1, -1.
** Constraint: Constraint-mx5
*Equation
3
Set-rig-5, 1, 1.
Set-lef-5, 1, -1.
Set-RPx, 1, -1.
** Constraint: Constraint-mx6
*Equation
3
Set-rig-6, 1, 1.
Set-lef-6, 1, -1.
Set-RPx, 1, -1.
** Constraint: Constraint-mx7
*Equation
3
Set-rig-7, 1, 1.
Set-lef-7, 1, -1.
Set-RPx, 1, -1.
** Constraint: Constraint-mx8
*Equation
3
Set-rig-8, 1, 1.
Set-lef-8, 1, -1.
Set-RPx, 1, -1.
** Constraint: Constraint-mx9
*Equation
3
Set-rig-9, 1, 1.
Set-lef-9, 1, -1.
Set-RPx, 1, -1.
** Constraint: Constraint-mx10
*Equation
3
Set-rig-10, 1, 1.
Set-lef-10, 1, -1.
Set-RPx, 1, -1.
** Constraint: Constraint-mx11
*Equation
3
Set-rig-11, 1, 1.
Set-lef-11, 1, -1.
Set-RPx, 1, -1.
** Constraint: Constraint-mx12
*Equation
3
Set-rig-12, 1, 1.
Set-lef-12, 1, -1.
Set-RPx, 1, -1.
** Constraint: Constraint-mx13
*Equation
3
Set-rig-13, 1, 1.
Set-lef-13, 1, -1.
Set-RPx, 1, -1.
** Constraint: Constraint-mx14
*Equation
3
Set-rig-14, 1, 1.
Set-lef-14, 1, -1.
Set-RPx, 1, -1.
** Constraint: Constraint-mx15
*Equation
3
Set-rig-15, 1, 1.
Set-lef-15, 1, -1.
Set-RPx, 1, -1.
** Constraint: Constraint-mx16
*Equation
3
Set-rig-16, 1, 1.
Set-lef-16, 1, -1.
Set-RPx, 1, -1.
** Constraint: Constraint-mx17
*Equation
3
Set-rig-17, 1, 1.
Set-lef-17, 1, -1.
Set-RPx, 1, -1.
** Constraint: Constraint-mx18
*Equation
3
Set-rig-18, 1, 1.
Set-lef-18, 1, -1.
Set-RPx, 1, -1.
** Constraint: Constraint-mx19
*Equation
3
Set-rig-19, 1, 1.
Set-lef-19, 1, -1.
Set-RPx, 1, -1.
** Constraint: Constraint-mx20
*Equation
3
Set-rig-20, 1, 1.
Set-lef-20, 1, -1.
Set-RPx, 1, -1.
** Constraint: Constraint-mx21
*Equation
3
Set-rig-21, 1, 1.
Set-lef-21, 1, -1.
Set-RPx, 1, -1.
** Constraint: Constraint-mx22
*Equation
3
Set-rig-22, 1, 1.
Set-lef-22, 1, -1.
Set-RPx, 1, -1.
** Constraint: Constraint-mx23
*Equation
3
Set-rig-23, 1, 1.
Set-lef-23, 1, -1.
Set-RPx, 1, -1.
** Constraint: Constraint-mx24
*Equation
3
Set-rig-24, 1, 1.
Set-lef-24, 1, -1.
Set-RPx, 1, -1.
** Constraint: Constraint-mx25
*Equation
3
Set-rig-25, 1, 1.
Set-lef-25, 1, -1.
Set-RPx, 1, -1.
** Constraint: Constraint-mx26
*Equation
3
Set-rig-26, 1, 1.
Set-lef-26, 1, -1.
Set-RPx, 1, -1.
** Constraint: Constraint-mx27
*Equation
3
Set-rig-27, 1, 1.
Set-lef-27, 1, -1.
Set-RPx, 1, -1.
** Constraint: Constraint-mx28
*Equation
3
Set-rig-28, 1, 1.
Set-lef-28, 1, -1.
Set-RPx, 1, -1.
** Constraint: Constraint-mx29
*Equation
3
Set-rig-29, 1, 1.
Set-lef-29, 1, -1.
Set-RPx, 1, -1.
** Constraint: Constraint-mx30
*Equation
3
Set-rig-30, 1, 1.
Set-lef-30, 1, -1.
Set-RPx, 1, -1.
** Constraint: Constraint-mx31
*Equation
3
Set-rig-31, 1, 1.
Set-lef-31, 1, -1.
Set-RPx, 1, -1.
** Constraint: Constraint-my1
*Equation
3
Set-rig-1, 2, 1.
Set-lef-1, 2, -1.
Set-RPx, 2, -1.
** Constraint: Constraint-my2
*Equation
3
Set-rig-2, 2, 1.
Set-lef-2, 2, -1.
Set-RPx, 2, -1.
** Constraint: Constraint-my3
*Equation
3
Set-rig-3, 2, 1.
Set-lef-3, 2, -1.
Set-RPx, 2, -1.
** Constraint: Constraint-my4
*Equation
3
Set-rig-4, 2, 1.
Set-lef-4, 2, -1.
Set-RPx, 2, -1.
** Constraint: Constraint-my5
*Equation
3
Set-rig-5, 2, 1.
Set-lef-5, 2, -1.
Set-RPx, 2, -1.
** Constraint: Constraint-my6
*Equation
3
Set-rig-6, 2, 1.
Set-lef-6, 2, -1.
Set-RPx, 2, -1.
** Constraint: Constraint-my7
*Equation
3
Set-rig-7, 2, 1.
Set-lef-7, 2, -1.
Set-RPx, 2, -1.
** Constraint: Constraint-my8
*Equation
3
Set-rig-8, 2, 1.
Set-lef-8, 2, -1.
Set-RPx, 2, -1.
** Constraint: Constraint-my9
*Equation
3
Set-rig-9, 2, 1.
Set-lef-9, 2, -1.
Set-RPx, 2, -1.
** Constraint: Constraint-my10
*Equation
3
Set-rig-10, 2, 1.
Set-lef-10, 2, -1.
Set-RPx, 2, -1.
** Constraint: Constraint-my11
*Equation
3
Set-rig-11, 2, 1.
Set-lef-11, 2, -1.
Set-RPx, 2, -1.
** Constraint: Constraint-my12
*Equation
3
Set-rig-12, 2, 1.
Set-lef-12, 2, -1.
Set-RPx, 2, -1.
** Constraint: Constraint-my13
*Equation
3
Set-rig-13, 2, 1.
Set-lef-13, 2, -1.
Set-RPx, 2, -1.
** Constraint: Constraint-my14
*Equation
3
Set-rig-14, 2, 1.
Set-lef-14, 2, -1.
Set-RPx, 2, -1.
** Constraint: Constraint-my15
*Equation
3
Set-rig-15, 2, 1.
Set-lef-15, 2, -1.
Set-RPx, 2, -1.
** Constraint: Constraint-my16
*Equation
3
Set-rig-16, 2, 1.
Set-lef-16, 2, -1.
Set-RPx, 2, -1.
** Constraint: Constraint-my17
*Equation
3
Set-rig-17, 2, 1.
Set-lef-17, 2, -1.
Set-RPx, 2, -1.
** Constraint: Constraint-my18
*Equation
3
Set-rig-18, 2, 1.
Set-lef-18, 2, -1.
Set-RPx, 2, -1.
** Constraint: Constraint-my19
*Equation
3
Set-rig-19, 2, 1.
Set-lef-19, 2, -1.
Set-RPx, 2, -1.
** Constraint: Constraint-my20
*Equation
3
Set-rig-20, 2, 1.
Set-lef-20, 2, -1.
Set-RPx, 2, -1.
** Constraint: Constraint-my21
*Equation
3
Set-rig-21, 2, 1.
Set-lef-21, 2, -1.
Set-RPx, 2, -1.
** Constraint: Constraint-my22
*Equation
3
Set-rig-22, 2, 1.
Set-lef-22, 2, -1.
Set-RPx, 2, -1.
** Constraint: Constraint-my23
*Equation
3
Set-rig-23, 2, 1.
Set-lef-23, 2, -1.
Set-RPx, 2, -1.
** Constraint: Constraint-my24
*Equation
3
Set-rig-24, 2, 1.
Set-lef-24, 2, -1.
Set-RPx, 2, -1.
** Constraint: Constraint-my25
*Equation
3
Set-rig-25, 2, 1.
Set-lef-25, 2, -1.
Set-RPx, 2, -1.
** Constraint: Constraint-my26
*Equation
3
Set-rig-26, 2, 1.
Set-lef-26, 2, -1.
Set-RPx, 2, -1.
** Constraint: Constraint-my27
*Equation
3
Set-rig-27, 2, 1.
Set-lef-27, 2, -1.
Set-RPx, 2, -1.
** Constraint: Constraint-my28
*Equation
3
Set-rig-28, 2, 1.
Set-lef-28, 2, -1.
Set-RPx, 2, -1.
** Constraint: Constraint-my29
*Equation
3
Set-rig-29, 2, 1.
Set-lef-29, 2, -1.
Set-RPx, 2, -1.
** Constraint: Constraint-my30
*Equation
3
Set-rig-30, 2, 1.
Set-lef-30, 2, -1.
Set-RPx, 2, -1.
** Constraint: Constraint-my31
*Equation
3
Set-rig-31, 2, 1.
Set-lef-31, 2, -1.
Set-RPx, 2, -1.
** Constraint: Constraint-nx1
*Equation
3
Set-top-1, 1, 1.
Set-bot-1, 1, -1.
Set-RPy, 1, -1.
** Constraint: Constraint-nx2
*Equation
3
Set-top-2, 1, 1.
Set-bot-2, 1, -1.
Set-RPy, 1, -1.
** Constraint: Constraint-nx3
*Equation
3
Set-top-3, 1, 1.
Set-bot-3, 1, -1.
Set-RPy, 1, -1.
** Constraint: Constraint-nx4
*Equation
3
Set-top-4, 1, 1.
Set-bot-4, 1, -1.
Set-RPy, 1, -1.
** Constraint: Constraint-nx5
*Equation
3
Set-top-5, 1, 1.
Set-bot-5, 1, -1.
Set-RPy, 1, -1.
** Constraint: Constraint-nx6
*Equation
3
Set-top-6, 1, 1.
Set-bot-6, 1, -1.
Set-RPy, 1, -1.
** Constraint: Constraint-nx7
*Equation
3
Set-top-7, 1, 1.
Set-bot-7, 1, -1.
Set-RPy, 1, -1.
** Constraint: Constraint-nx8
*Equation
3
Set-top-8, 1, 1.
Set-bot-8, 1, -1.
Set-RPy, 1, -1.
** Constraint: Constraint-nx9
*Equation
3
Set-top-9, 1, 1.
Set-bot-9, 1, -1.
Set-RPy, 1, -1.
** Constraint: Constraint-nx10
*Equation
3
Set-top-10, 1, 1.
Set-bot-10, 1, -1.
Set-RPy, 1, -1.
** Constraint: Constraint-nx11
*Equation
3
Set-top-11, 1, 1.
Set-bot-11, 1, -1.
Set-RPy, 1, -1.
** Constraint: Constraint-nx12
*Equation
3
Set-top-12, 1, 1.
Set-bot-12, 1, -1.
Set-RPy, 1, -1.
** Constraint: Constraint-nx13
*Equation
3
Set-top-13, 1, 1.
Set-bot-13, 1, -1.
Set-RPy, 1, -1.
** Constraint: Constraint-nx14
*Equation
3
Set-top-14, 1, 1.
Set-bot-14, 1, -1.
Set-RPy, 1, -1.
** Constraint: Constraint-nx15
*Equation
3
Set-top-15, 1, 1.
Set-bot-15, 1, -1.
Set-RPy, 1, -1.
** Constraint: Constraint-nx16
*Equation
3
Set-top-16, 1, 1.
Set-bot-16, 1, -1.
Set-RPy, 1, -1.
** Constraint: Constraint-nx17
*Equation
3
Set-top-17, 1, 1.
Set-bot-17, 1, -1.
Set-RPy, 1, -1.
** Constraint: Constraint-nx18
*Equation
3
Set-top-18, 1, 1.
Set-bot-18, 1, -1.
Set-RPy, 1, -1.
** Constraint: Constraint-nx19
*Equation
3
Set-top-19, 1, 1.
Set-bot-19, 1, -1.
Set-RPy, 1, -1.
** Constraint: Constraint-nx20
*Equation
3
Set-top-20, 1, 1.
Set-bot-20, 1, -1.
Set-RPy, 1, -1.
** Constraint: Constraint-nx21
*Equation
3
Set-top-21, 1, 1.
Set-bot-21, 1, -1.
Set-RPy, 1, -1.
** Constraint: Constraint-nx22
*Equation
3
Set-top-22, 1, 1.
Set-bot-22, 1, -1.
Set-RPy, 1, -1.
** Constraint: Constraint-nx23
*Equation
3
Set-top-23, 1, 1.
Set-bot-23, 1, -1.
Set-RPy, 1, -1.
** Constraint: Constraint-nx24
*Equation
3
Set-top-24, 1, 1.
Set-bot-24, 1, -1.
Set-RPy, 1, -1.
** Constraint: Constraint-nx25
*Equation
3
Set-top-25, 1, 1.
Set-bot-25, 1, -1.
Set-RPy, 1, -1.
** Constraint: Constraint-nx26
*Equation
3
Set-top-26, 1, 1.
Set-bot-26, 1, -1.
Set-RPy, 1, -1.
** Constraint: Constraint-nx27
*Equation
3
Set-top-27, 1, 1.
Set-bot-27, 1, -1.
Set-RPy, 1, -1.
** Constraint: Constraint-nx28
*Equation
3
Set-top-28, 1, 1.
Set-bot-28, 1, -1.
Set-RPy, 1, -1.
** Constraint: Constraint-nx29
*Equation
3
Set-top-29, 1, 1.
Set-bot-29, 1, -1.
Set-RPy, 1, -1.
** Constraint: Constraint-nx30
*Equation
3
Set-top-30, 1, 1.
Set-bot-30, 1, -1.
Set-RPy, 1, -1.
** Constraint: Constraint-nx31
*Equation
3
Set-top-31, 1, 1.
Set-bot-31, 1, -1.
Set-RPy, 1, -1.
** Constraint: Constraint-ny1
*Equation
3
Set-top-1, 2, 1.
Set-bot-1, 2, -1.
Set-RPy, 2, -1.
** Constraint: Constraint-ny2
*Equation
3
Set-top-2, 2, 1.
Set-bot-2, 2, -1.
Set-RPy, 2, -1.
** Constraint: Constraint-ny3
*Equation
3
Set-top-3, 2, 1.
Set-bot-3, 2, -1.
Set-RPy, 2, -1.
** Constraint: Constraint-ny4
*Equation
3
Set-top-4, 2, 1.
Set-bot-4, 2, -1.
Set-RPy, 2, -1.
** Constraint: Constraint-ny5
*Equation
3
Set-top-5, 2, 1.
Set-bot-5, 2, -1.
Set-RPy, 2, -1.
** Constraint: Constraint-ny6
*Equation
3
Set-top-6, 2, 1.
Set-bot-6, 2, -1.
Set-RPy, 2, -1.
** Constraint: Constraint-ny7
*Equation
3
Set-top-7, 2, 1.
Set-bot-7, 2, -1.
Set-RPy, 2, -1.
** Constraint: Constraint-ny8
*Equation
3
Set-top-8, 2, 1.
Set-bot-8, 2, -1.
Set-RPy, 2, -1.
** Constraint: Constraint-ny9
*Equation
3
Set-top-9, 2, 1.
Set-bot-9, 2, -1.
Set-RPy, 2, -1.
** Constraint: Constraint-ny10
*Equation
3
Set-top-10, 2, 1.
Set-bot-10, 2, -1.
Set-RPy, 2, -1.
** Constraint: Constraint-ny11
*Equation
3
Set-top-11, 2, 1.
Set-bot-11, 2, -1.
Set-RPy, 2, -1.
** Constraint: Constraint-ny12
*Equation
3
Set-top-12, 2, 1.
Set-bot-12, 2, -1.
Set-RPy, 2, -1.
** Constraint: Constraint-ny13
*Equation
3
Set-top-13, 2, 1.
Set-bot-13, 2, -1.
Set-RPy, 2, -1.
** Constraint: Constraint-ny14
*Equation
3
Set-top-14, 2, 1.
Set-bot-14, 2, -1.
Set-RPy, 2, -1.
** Constraint: Constraint-ny15
*Equation
3
Set-top-15, 2, 1.
Set-bot-15, 2, -1.
Set-RPy, 2, -1.
** Constraint: Constraint-ny16
*Equation
3
Set-top-16, 2, 1.
Set-bot-16, 2, -1.
Set-RPy, 2, -1.
** Constraint: Constraint-ny17
*Equation
3
Set-top-17, 2, 1.
Set-bot-17, 2, -1.
Set-RPy, 2, -1.
** Constraint: Constraint-ny18
*Equation
3
Set-top-18, 2, 1.
Set-bot-18, 2, -1.
Set-RPy, 2, -1.
** Constraint: Constraint-ny19
*Equation
3
Set-top-19, 2, 1.
Set-bot-19, 2, -1.
Set-RPy, 2, -1.
** Constraint: Constraint-ny20
*Equation
3
Set-top-20, 2, 1.
Set-bot-20, 2, -1.
Set-RPy, 2, -1.
** Constraint: Constraint-ny21
*Equation
3
Set-top-21, 2, 1.
Set-bot-21, 2, -1.
Set-RPy, 2, -1.
** Constraint: Constraint-ny22
*Equation
3
Set-top-22, 2, 1.
Set-bot-22, 2, -1.
Set-RPy, 2, -1.
** Constraint: Constraint-ny23
*Equation
3
Set-top-23, 2, 1.
Set-bot-23, 2, -1.
Set-RPy, 2, -1.
** Constraint: Constraint-ny24
*Equation
3
Set-top-24, 2, 1.
Set-bot-24, 2, -1.
Set-RPy, 2, -1.
** Constraint: Constraint-ny25
*Equation
3
Set-top-25, 2, 1.
Set-bot-25, 2, -1.
Set-RPy, 2, -1.
** Constraint: Constraint-ny26
*Equation
3
Set-top-26, 2, 1.
Set-bot-26, 2, -1.
Set-RPy, 2, -1.
** Constraint: Constraint-ny27
*Equation
3
Set-top-27, 2, 1.
Set-bot-27, 2, -1.
Set-RPy, 2, -1.
** Constraint: Constraint-ny28
*Equation
3
Set-top-28, 2, 1.
Set-bot-28, 2, -1.
Set-RPy, 2, -1.
** Constraint: Constraint-ny29
*Equation
3
Set-top-29, 2, 1.
Set-bot-29, 2, -1.
Set-RPy, 2, -1.
** Constraint: Constraint-ny30
*Equation
3
Set-top-30, 2, 1.
Set-bot-30, 2, -1.
Set-RPy, 2, -1.
** Constraint: Constraint-ny31
*Equation
3
Set-top-31, 2, 1.
Set-bot-31, 2, -1.
Set-RPy, 2, -1.
** Constraint: Constraint-vx-14
*Equation
3
Set-v1, 1, 1.
Set-v4, 1, -1.
Set-RPy, 1, -1.
** Constraint: Constraint-vx-21
*Equation
3
Set-v2, 1, 1.
Set-v1, 1, -1.
Set-RPx, 1, -1.
** Constraint: Constraint-vx-3431
*Equation
3
Set-v3, 1, 1.
Set-v4, 1, -1.
Set-RPx, 1, -1.
** Constraint: Constraint-vy-21
*Equation
3
Set-v2, 2, 1.
Set-v1, 2, -1.
Set-RPx, 2, -1.
** Constraint: Constraint-vy-1431
*Equation
3
Set-v1, 2, 1.
Set-v4, 2, -1.
Set-RPy, 2, -1.
** Constraint: Constraint-vy-3431
*Equation
3
Set-v3, 2, 1.
Set-v4, 2, -1.
Set-RPx, 2, -1.
*End Assembly
** 
** MATERIALS
**
*Material, name=MAT1
*Density
 7.655e-09,
*Depvar
    400,
*User Material, constants=5
2.87, 0.52, 3.08, 0, 77
*Material, name=MAT2
*Density
 7.655e-09,
*Depvar
    400,
*User Material, constants=5
1.13, 0.44, 2.21, 0, 77
*Material, name=MAT3
*Density
 7.655e-09,
*Depvar
    400,
*User Material, constants=5
0.43, 2.71, 2.04, 0, 77
*Material, name=MAT4
*Density
 7.655e-09,
*Depvar
    400,
*User Material, constants=5
1.83, 0.81, 2.04, 0, 77
*Material, name=MAT5
*Density
 7.655e-09,
*Depvar
    400,
*User Material, constants=5
1.27, 0.37, 2.08, 0, 77
*Material, name=MAT6
*Density
 7.655e-09,
*Depvar
    400,
*User Material, constants=5
2.36, 1.67, 4.02, 0, 77
*Material, name=MAT7
*Density
 7.655e-09,
*Depvar
    400,
*User Material, constants=5
2.93, 0.82, 5.08, 0, 77
*Material, name=MAT8
*Density
 7.655e-09,
*Depvar
    400,
*User Material, constants=5
3.13, 2.46, 2.43, 0, 77
*Material, name=MAT9
*Density
 7.655e-09,
*Depvar
    400,
*User Material, constants=5
1.11, 1.5, 2.07, 0, 77
*Material, name=MAT10
*Density
 7.655e-09,
*Depvar
    400,
*User Material, constants=5
3.09, 1.08, 0.92, 0, 77
*Material, name=MAT11
*Density
 7.655e-09,
*Depvar
    400,
*User Material, constants=5
0.35, 2.28, 5.0, 0, 77
*Material, name=MAT12
*Density
 7.655e-09,
*Depvar
    400,
*User Material, constants=5
4.17, 2.23, 3.9, 0, 77
*Material, name=MAT13
*Density
 7.655e-09,
*Depvar
    400,
*User Material, constants=5
5.8, 2.25, 3.49, 0, 77
*Material, name=MAT14
*Density
 7.655e-09,
*Depvar
    400,
*User Material, constants=5
0.13, 1.17, 5.31, 0, 77
*Material, name=MAT15
*Density
 7.655e-09,
*Depvar
    400,
*User Material, constants=5
6.09, 1.86, 5.2, 0, 77
*Material, name=MAT16
*Density
 7.655e-09,
*Depvar
    400,
*User Material, constants=5
4.14, 0.69, 5.83, 0, 77
*Material, name=MAT17
*Density
 7.655e-09,
*Depvar
    400,
*User Material, constants=5
2.96, 0.43, 3.75, 0, 77
*Material, name=MAT18
*Density
 7.655e-09,
*Depvar
    400,
*User Material, constants=5
1.86, 2.83, 0.47, 0, 77
*Material, name=MAT19
*Density
 7.655e-09,
*Depvar
    400,
*User Material, constants=5
4.55, 2.81, 0.82, 0, 77
*Material, name=MAT20
*Density
 7.655e-09,
*Depvar
    400,
*User Material, constants=5
0.29, 2.75, 4.91, 0, 77
*Material, name=MAT21
*Density
 7.655e-09,
*Depvar
    400,
*User Material, constants=5
2.65, 2.1, 3.54, 0, 77
*Material, name=MAT22
*Density
 7.655e-09,
*Depvar
    400,
*User Material, constants=5
2.03, 1.31, 1.25, 0, 77
*Material, name=MAT23
*Density
 7.655e-09,
*Depvar
    400,
*User Material, constants=5
2.42, 2.28, 2.96, 0, 77
*Material, name=MAT24
*Density
 7.655e-09,
*Depvar
    400,
*User Material, constants=5
2.28, 0.32, 1.15, 0, 77
*Material, name=MAT25
*Density
 7.655e-09,
*Depvar
    400,
*User Material, constants=5
5.61, 2.0, 1.73, 0, 77
*Material, name=MAT26
*Density
 7.655e-09,
*Depvar
    400,
*User Material, constants=5
0.41, 2.25, 4.4, 0, 77
*Material, name=MAT27
*Density
 7.655e-09,
*Depvar
    400,
*User Material, constants=5
3.94, 1.63, 3.79, 0, 77
*Material, name=MAT28
*Density
 7.655e-09,
*Depvar
    400,
*User Material, constants=5
2.26, 0.63, 5.82, 0, 77
*Material, name=MAT29
*Density
 7.655e-09,
*Depvar
    400,
*User Material, constants=5
3.59, 1.6, 5.64, 0, 77
*Material, name=MAT30
*Density
 7.655e-09,
*Depvar
    400,
*User Material, constants=5
3.87, 1.33, 3.69, 0, 77
** 
** STEP: Step-1
** 
*Step, name=Step-1, nlgeom=YES
*Dynamic, Explicit
, 0.0001
*Bulk Viscosity
0.06, 1.2
** 
** BOUNDARY CONDITIONS
** 
** Name: BC-1 Type: Velocity/Angular velocity
*Boundary, type=VELOCITY
_PickedSet140, 1, 1, -3300.
_PickedSet140, 2, 2
** 
** OUTPUT REQUESTS
** 
*Restart, write, number interval=1, time marks=NO
** 
** FIELD OUTPUT: F-Output-1
** 
*Output, field, number interval=59
*Node Output
A, RF, U, V
*Element Output, directions=YES
EVF, LE, PE, PEEQ, PEEQVAVG, PEVAVG, S, SDV, SVAVG
*Contact Output
CSTRESS, 
** 
** HISTORY OUTPUT: H-Output-1
** 
*Output, history, variable=PRESELECT
*End Step
